6
Coordinates from ORCA-job 02_H2O_2
  O   0.06622884884485      1.29992624158320     -0.00065954348256
  H   -0.82264891259385      1.67098324237752      0.00036499408450
  H   -0.06963984633147      0.33564969854675      0.00019472341060
  O   -0.10257043427603     -1.58219374449888      0.00022281348311
  H   0.39817512727081     -1.89010469441116     -0.76496831755280
  H   0.39864213708570     -1.89066421359742      0.76484533005714
