15
Coordinates from ORCA-job 05_H2O_5
  O   2.25849077629445      0.14871359469499     -0.12293076897845
  O   0.84472876468035     -2.12146577641843      0.06253718746191
  O   -1.75386764628839     -1.46707985761917      0.00213605565584
  O   -1.91007302594060      1.20934635396805     -0.22656178445950
  O   0.55078452776061      2.19220947298412      0.20426128452091
  H   1.75615617482671     -0.70836097806281     -0.07591133593407
  H   -0.12481099229473     -1.90198402117077      0.05937290736007
  H   -1.86310303802103     -0.48187976787377     -0.06280226220596
  H   -1.00825998393080      1.59931306993172     -0.07312881751246
  H   1.20613816578665      1.44979211452100      0.11273692455646
  H   2.94784420804930      0.07605754802097      0.54571168126484
  H   0.96786495044962     -2.73414981882079     -0.67040002628048
  H   -2.26977913875083     -1.73744027603600      0.76878173133471
  H   -2.50282294694589      1.69764891597877      0.35420461422977
  H   0.81793420432458      2.84471242590212     -0.45209239101360
