18
Coordinates from ORCA-job 09_H2O_6_prism
  O   -1.45528014738128     -0.20880496052134      1.39099295640030
  H   -0.55402003072306     -0.64555511700724      1.50835085452922
  H   -1.99545021946900     -0.46968746987201      2.14379978857188
  O   -1.68323828524881     -0.33944250717468     -1.32576583366213
  H   -1.80901760191215     -0.44734220849492     -0.35560588319437
  H   -2.45615513792931     -0.72868718800872     -1.74820438114654
  O   -0.59806651503291      2.08612206372952     -0.03586999006368
  H   -0.95358243105303      1.54145391951462      0.69199010895717
  H   -1.01150701135449      1.67883504506471     -0.81325227052134
  O   0.95555895742407     -1.24154553907058      1.41519601883846
  H   0.96683338942734     -1.54814904141369      0.47495276314121
  H   1.52441912264612     -0.45585830271293      1.36778118673205
  O   0.98761227347400     -1.40240777242484     -1.32622558374592
  H   0.08004915645200     -1.10653910838724     -1.52857080046932
  H   1.48852252887817     -0.57078081493533     -1.24831476218065
  O   1.91812552688869      1.04879460078684     -0.12698589540073
  H   1.05626822257325      1.53719085381514     -0.10844204192541
  H   2.60116520234039      1.71666554711269     -0.24726523486020
