18
Coordinates from ORCA-job 07_H2O_6_book
  O   1.75569456272785      1.57090056011718      1.34718292752479
  H   1.53005992493614      1.54999842856229      0.41831067317730
  H   2.64028417298981      1.54296801213469      1.68296142655873
  O   -0.70690235056839     -0.69220598319892      0.78599853725661
  H   -0.15065409206973     -0.07539188049375      1.32263567008782
  H   -1.50230501880619     -0.69298945438126      0.19111887288380
  O   -0.88915104009062      2.21715240305462      0.38895557067139
  H   -0.17840061393599      1.94055960250781      0.92365429013736
  H   -0.67790826123191      2.91580344924011     -0.20092826043759
  O   -3.04213416690649     -2.43270550894032     -1.68695926481029
  H   -3.32756581427059     -1.56032482558830     -1.55811554417576
  H   -3.59507378374597     -3.11785520660410     -2.05055918300351
  O   0.52224225937873      0.51243754998505     -1.46333592351944
  H   1.11495509798394     -0.18704384148870     -1.19394084062185
  H   -0.39723266573279      0.39524910144396     -1.64029102105411
  O   2.40800827674366     -0.94753324057690      0.65642558644421
  H   1.50615288566556     -1.25265967328517      0.73986896244082
  H   3.03916362693300     -0.72226649248828      1.32425052043973
