6
Coordinates from ORCA-job normal
  O   -0.53710031127664      1.64249793796189     -0.00426143693970
  H   -0.04195271380363      2.44906265313574     -0.03828275235368
  H   -1.47628902854697      1.61745492152102      0.03372625030069
  O   0.50356344059474     -2.84476079914292     -0.00921226526195
  H   0.70611038926237     -2.41834425196326     -0.82389704185273
  H   0.71385514377014     -2.50231393151244      0.84192724610738
