18
Coordinates from ORCA-job 06_H2O_6_ring
  O   -0.01246809017128      2.66826533659302     -0.07153391821868
  H   -0.08304590321383      3.30835620673593      0.65062993035536
  H   -0.86058479587456      2.13683872215249     -0.02717699911778
  O   -2.30186996659616     -1.33843589650012     -0.07191058145066
  H   -1.41640902322935     -1.80484777275056     -0.02705030842163
  H   -2.82078817138675     -1.72251757890388      0.64880279171384
  O   2.30186993922328      1.33843649891628      0.07190809483844
  H   2.82078808347239      1.72251670473443     -0.64880610177762
  H   1.41640919601644      1.80484872642593      0.02704754688911
  O   0.01246860988616     -2.66826398657349      0.07153185017083
  H   0.86058583501829     -2.13683793977350      0.02717756254367
  H   0.08304830741660     -3.30835542715049     -0.65063133129928
  O   2.32162361222647     -1.33019940267619     -0.07127052495892
  H   2.91141429087808     -1.58654404241791      0.65166450825098
  H   2.27909354667358     -0.33034577064846     -0.02589863791773
  O   -2.32162225757606      1.33019957336942      0.07127621550746
  H   -2.91141628473637      1.58654698627196     -0.65165512475704
  H   -2.27909292802693      0.33034606219513      0.02590102764966
