18
Coordinates from ORCA-job 06_H2O_6_ring
  O   0.02194452093692      2.68095623495805      0.11364991752096
  H   -0.10884308398490      3.19859488270976      0.91994201648245
  H   -0.82453583655026      2.16027040242543     -0.00378755490446
  O   -2.31183223654746     -1.32565598612548      0.11147909854601
  H   -1.44681032915177     -1.81188362907509     -0.01894327997512
  H   -2.68992115696921     -1.69930506570761      0.91940550019452
  O   2.31185104116257      1.32566773653099     -0.11149042842768
  H   2.68987766256619      1.69938605418564     -0.91941372733282
  H   1.44680582041700      1.81183659640723      0.01899578754910
  O   -0.02194244638712     -2.68097603526389     -0.11366124962049
  H   0.82450447281769     -2.16024415845109      0.00381615111912
  H   0.10890641264584     -3.19858993012355     -0.91995913683116
  O   2.27005643512503     -1.33433191329393      0.11540107841534
  H   2.78432550288477     -1.46785013305311      0.92325357298680
  H   2.26166889012870     -0.34418153093522     -0.02801217442558
  O   -2.27006669620230      1.33433950441298     -0.11543184595442
  H   -2.78436170096683      1.46777549471974     -0.92328115105982
  H   -2.26162327192487      0.34419847567915      0.02804342571726
