9
Coordinates from ORCA-job 03_H2O_3
  O   -1.46909979893124     -0.64429692497498     -0.08119334354540
  H   -0.60327608367487     -1.08260835370927     -0.03657303754514
  H   -2.02241387605738     -1.08061917728513      0.56796945147303
  O   1.29915135793909     -0.94030765847366     -0.09149285777582
  H   1.96723646767966     -1.19728812448950      0.54523934541179
  H   1.21765148051295      0.02598524521907     -0.02159711219339
  O   0.16838272011231      1.59156810304707      0.10814487145926
  H   -0.63074599589333      1.04017722344935      0.05968074549198
  H   0.08334572831282      2.23858366721707     -0.59372706277632
