12
Coordinates from ORCA-job 04_H2O_4
  O   1.36403992305791     -1.36288397586102      0.01648485296454
  H   0.39464390207374     -1.50020783561817     -0.00860014199031
  H   1.67980524111867     -1.86145742063825      0.77152826655126
  O   -1.36288471645716     -1.36404047415498     -0.01648516534782
  H   -1.50020804467371     -0.39464439311245      0.00859975853794
  H   -1.86145847615723     -1.67980643910105     -0.77152814805671
  O   -1.36403830178046      1.36288526450828      0.01648452641341
  H   -0.39464210011625      1.50020863062203     -0.00860009199463
  H   -1.67980334309544      1.86145841440863      0.77152825058703
  O   1.36288405546310      1.36404059129732     -0.01648441338509
  H   1.50020781167340      0.39464454046327      0.00860034957586
  H   1.86145704889342      1.67980609718641     -0.77152804385549
