18
Coordinates from ORCA-job 06_H2O_6_ring
  O   0.00153114494112      2.68438276335259      0.15639124575762
  H   -0.11594481152977      3.20502354775032      0.95204080975333
  H   -0.83861198530795      2.19229521465538      0.03571675311357
  O   -2.32503933603944     -1.34003723754501      0.15630187618182
  H   -1.47869573948622     -1.82136490708064      0.03558900937519
  H   -2.71702513261728     -1.70224309690461      0.95197082720158
  O   2.32503777933514      1.34003721103559     -0.15630844958647
  H   2.71702017539840      1.70223887381650     -0.95198099163154
  H   1.47869468076433      1.82136530781488     -0.03559468920945
  O   -0.00153015325005     -2.68438182799884     -0.15639299503701
  H   0.83861244376853     -2.19229441341535     -0.03571420957023
  H   0.11594841316203     -3.20501938241583     -0.95204433261273
  O   2.32426245046078     -1.34422889395146      0.15634472007129
  H   2.83369699003488     -1.50246309410823      0.95219091954001
  H   2.31754698852067     -0.37059945595577      0.03569938682101
  O   -2.32426051722322      1.34422986608324     -0.15633245671841
  H   -2.83369486663005      1.50246692565876     -0.95217716120648
  H   -2.31754452430188      0.37059959920848     -0.03569426224311
