18
Coordinates from ORCA-job 07_H2O_6_book
  O   0.11752157052813      1.54258545433352      0.87036282937364
  H   0.95849116102475      1.51449545474835      0.35636992120045
  H   0.27476853629082      2.12869424038009      1.61255116639434
  O   -0.02859974502312     -1.35974749316542      0.90452043942753
  H   -0.05449882522350     -0.41402494268047      1.10379718229400
  H   -0.87285028163073     -1.53076212441710      0.44939679935887
  O   -2.32077080691676      1.35338287722539     -0.42952671765448
  H   -1.46067143501033      1.53256982943046     -0.00792152309085
  H   -2.33415526533699      1.87471590205154     -1.23338023295995
  O   -2.47251369415294     -1.40600382130122     -0.43614376677573
  H   -2.54161758789912     -0.43525779490009     -0.50166208182345
  H   -3.27081520020543     -1.69407168251155      0.00900079816990
  O   2.40497618920848      1.20736000482511     -0.47629941526278
  H   2.48757717982901      0.22678318411335     -0.49721820594862
  H   2.53293424090659      1.50106240469660     -1.37939185864247
  O   2.29383459683856     -1.47410580192632     -0.43070703413944
  H   1.42881638540924     -1.56410304091221      0.03249472828078
  H   2.90680598136332     -2.03947964999002      0.04098997179826
