18
Coordinates from ORCA-job 09_H2O_6_prism
  O   -1.50511601225484     -0.23289154657271      1.43156308873310
  H   -0.60370491007071     -0.63338563684978      1.53960665150841
  H   -2.01377289847939     -0.48091896420351      2.20487641008059
  O   -1.73754932502319     -0.35228447682803     -1.31905059494437
  H   -1.88237768566540     -0.47685433017700     -0.36370984676506
  H   -2.49919692468056     -0.72664027839577     -1.76468965116545
  O   -0.56418484289212      2.00490788819012     -0.08052607836615
  H   -0.95324520023137      1.51548341939243      0.65858556123450
  H   -0.98650485900130      1.59202156189829     -0.84337116901899
  O   0.96772677070498     -1.19004874009260      1.40998911830548
  H   0.98042049106407     -1.53211778046632      0.49563348994675
  H   1.54021293988024     -0.41582611408572      1.33074441662489
  O   0.97511583239383     -1.35415566065203     -1.36744243844106
  H   0.06820502727399     -1.06800640225132     -1.54730347484573
  H   1.47275918056166     -0.53046104404052     -1.27748198341306
  O   1.99650954911506      1.06130488344222     -0.09054522396652
  H   1.13536171448012      1.53006434194212     -0.09735678852319
  H   2.67157815282492      1.73407087975013     -0.19096048698415
