9
Coordinates from ORCA-job 03_H2O_3
  O   -1.47190811482794     -0.64607985466496     -0.08131827192804
  H   -0.60412652911368     -1.08500167961910     -0.03646635975938
  H   -2.02706912781401     -1.08196722602098      0.56900511754771
  O   1.30238883452358     -0.94176276221286     -0.09176383175968
  H   1.97124027324451     -1.20052457451459      0.54591479535320
  H   1.22028177256416      0.02654895664847     -0.02172137509025
  O   0.16795515218312      1.59483299559274      0.10814506869106
  H   -0.63264757877483      1.04194325564241      0.05954630958176
  H   0.08411731801507      2.24320488914887     -0.59489045263638
