12
Coordinates from ORCA-job 04_H2O_4
  O   1.36546537802241     -1.36468209137081      0.01661718951110
  H   0.39358403389532     -1.50197078340300     -0.00854413721107
  H   1.68312385536993     -1.86346335163356      0.77282490915786
  O   -1.36468074219823     -1.36546215304262     -0.01661724771172
  H   -1.50196998632030     -0.39358074428758      0.00854378214808
  H   -1.86346189160170     -1.68312051471891     -0.77282503442936
  O   -1.36546264179344      1.36468314238975      0.01661644096214
  H   -0.39358116814794      1.50197093119520     -0.00854429780802
  H   -1.68312022247695      1.86346447470559      0.77282456015598
  O   1.36467832122221      1.36546211537153     -0.01661635310541
  H   1.50196929756322      0.39358105226134      0.00854468236480
  H   1.86345876646546      1.68312092253306     -0.77282449403437
