15
Coordinates from ORCA-job 05_H2O_5
  O   2.29342805575621      0.15072103281310      0.19420240564074
  O   0.86082843354112     -2.12110852853771     -0.16888629106594
  O   -1.76685409621216     -1.48860456841825      0.05872388390812
  O   -1.94757075977234      1.22635242115317     -0.04960965275578
  O   0.57380529538544      2.22675084681052     -0.09443262024784
  H   1.81563417485273     -0.69811298162873      0.05634967115954
  H   -0.09982947734029     -1.92818196618069     -0.08349670593513
  H   -1.89982806737119     -0.51500925682090      0.05095230603541
  H   -1.04754019624036      1.62292972080062     -0.07253508114109
  H   1.22880413058328      1.50452135698917      0.03584554451829
  H   2.79687522644460      0.04127610230895      1.00396246370822
  H   0.95858073457760     -2.60298327129010     -0.99328688689736
  H   -2.24364936387631     -1.81602739729202      0.82450773924016
  H   -2.45966904728471      1.77245578418003      0.55054285793073
  H   0.85420995695639      2.69045370511284     -0.88692463409807
