18
Coordinates from ORCA-job 08_H2O_6_cage
  O   0.86532092062890     -1.72511519408980     -0.44907049644749
  H   1.68409657270662     -1.20598197562006     -0.28883543602262
  H   1.14129291648634     -2.60621602667014     -0.71164171738650
  O   -0.74776840978699      0.36034401574145     -1.64397160754972
  H   -0.27826307116169     -0.47552301920622     -1.49780589458193
  H   -1.62413987627624      0.21556980546999     -1.24038864104401
  O   0.59097891875269      1.75244066952314      0.19376508261689
  H   0.06562871104426      1.36750871011940     -0.55746977513732
  H   0.50073589477812      2.70645463647958      0.13579809682961
  O   -0.67861597933856     -0.44818350306041      1.66590393846829
  H   -0.18935942749309     -1.06681336323578      1.10128029332383
  H   -0.26234451518344      0.40550017315094      1.47490931373341
  O   2.79106966013972      0.11244054270713      0.08375108105117
  H   2.14846380498853      0.84721978465189      0.15603208860155
  H   3.27312382018336      0.10017241801651      0.91415270189116
  O   -2.89192578391815      0.01242336681904      0.09137122260806
  H   -2.24796294172305     -0.22537164977688      0.79058440812667
  H   -3.64034121482734     -0.57925039101977      0.19182434091895
